[TITLE]


[JUNCTIONS]
;id elevation demand demandpattern
J1 1.8558 0 
 J2 2.4901 0 
 J3 1.4991 0 
 J4 -0.7243 0 
 J5 -2.2175 0 
 J6 -1.7686 0 
 J7 -0.273 0 
 J8 1.5391 0 
 J9 3.3788 0 
 J10 3.5481 0 
 J11 1.7615 0 
 J12 0.1059 0 
 J13 0.3066 0 
 J14 1.5727 0 
 J15 -0.1147 0 
 J16 2.2007 0 
 J17 3.0732 0 
 J18 1.7771 0 
 J19 0.4444 0 
 J20 1.0299 0 
 J21 2.6148 0 
 J22 -1.6523 0 
 J23 0.6227 0 
 J24 1.8073 0 
 J25 0.9811 0 
 J26 0.1175 0 
 J27 1.1028 0 
 J28 2.9372 0 
 J29 -2.1722 0 
 J30 -0.2751 0 
 J31 0.8857 0 
 J32 0.4342 0 
 J33 -0.053 0 
 J34 0.9763 0 
 J35 2.6419 0 
 J36 -1.5158 0 
 J37 0.0125 0 
 J38 1.0854 0 
 J39 0.9523 0 
 J40 0.6237 0 
 J41 1.2115 0 
 J42 2.194 0 
 J43 0.229 0 
 J44 1.9628 0 
 J45 3.3987 0 
 J46 3.689 0 
 J47 3.1959 0 
 J48 2.7399 0 
 J49 2.4343 0 
 
 [RESERVOIRS]
;id head pattern
R 0 
 
 [TANKS]
;id elevation initlevel minlevel maxlevel diameter minvolume volumecurve

 [PIPES]
;id startnode endnode length diameter roughness minorloss
P1 J11 J5 23.567870077713856 9 0.15 0.0 
 P2 J34 J33 16.659999999999997 9 0.15 0.0 
 P3 J15 J23 23.574940084759497 9 0.15 0.0 
 P4 J39 J45 23.574940084759497 9 0.15 0.0 
 P5 J19 J27 23.567870077713852 9 0.15 0.0 
 P6 J18 J17 16.67 9 0.15 0.0 
 P7 J13 J7 23.574940084759497 9 0.15 0.0 
 P8 J23 J31 23.567870077713852 9 0.15 0.0 
 P9 J19 J20 16.659999999999997 9 0.15 0.0 
 P10 J35 J42 16.659999999999997 9 0.15 0.0 
 P11 J39 J32 16.659999999999997 9 0.15 0.0 
 P12 J45 J46 16.67 9 0.15 0.0 
 P13 J23 J22 16.67 9 0.15 0.0 
 P14 J2 J3 16.669999999999998 9 0.15 0.0 
 P15 J13 J6 16.67 9 0.15 0.0 
 P16 J11 J3 23.567870077713856 9 0.15 0.0 
 P17 J8 J2 23.574940084759497 9 0.15 0.0 
 P18 J7 J14 16.67 9 0.15 0.0 
 P19 J16 J24 23.567870077713852 9 0.15 0.0 
 P20 J37 J30 16.659999999999997 9 0.15 0.0 
 P21 J23 J29 23.574940084759497 9 0.15 0.0 
 P22 J5 J4 16.66 9 0.15 0.0 
 P23 J19 J11 23.567870077713852 9 0.15 0.0 
 P24 J32 J40 23.567870077713852 9 0.15 0.0 
 P25 J37 J43 23.574940084759497 9 0.15 0.0 
 P26 J26 J33 16.67 9 0.15 0.0 
 P27 J5 J12 16.670002999399852 9 0.15 0.0 
 P28 J13 J5 23.574940084759493 9 0.15 0.0 
 P29 J23 J30 16.67 9 0.15 0.0 
 P30 J43 J36 16.67 9 0.15 0.0 
 P31 J32 J24 23.574940084759497 9 0.15 0.0 
 P32 J25 J26 16.67 9 0.15 0.0 
 P33 J48 J49 16.67 9 0.15 0.0 
 P34 J41 J40 16.659999999999997 9 0.15 0.0 
 P35 J27 J28 16.67 9 0.15 0.0 
 P36 J2 J1 16.67 9 0.15 0.0 
 P37 J2 J10 23.567870077713852 9 0.15 0.0 
 P38 J2 J9 16.67 9 0.15 0.0 
 P39 J37 J44 16.67 9 0.15 0.0 
 P40 J20 J21 16.67 9 0.15 0.0 
 P41 J39 J47 23.574940084759497 9 0.15 0.0 
 P42 J35 J34 16.67 9 0.15 0.0 
 P43 J17 J10 16.659999999999997 9 0.15 0.0 
 P44 J37 J38 16.659999999999997 9 0.15 0.0 
 P45 J15 J8 16.659999999999997 9 0.15 0.0 
 P46 J25 J18 16.67 9 0.15 0.0 
 P47 J48 J41 16.67 9 0.15 0.0 
 P48 J9 J16 16.659999999999997 9 0.15 0.0 
 
 [PUMPS]
;id startnode endnode keyword value
PUMP R J1 HEAD C1 SPEED 1.0 
 
 [VALVES]
;id startnode endnode diameter valvetype setting minorloss

 [EMITTERS]
;id emittercoefficient
J1 0.004
J2 0.004
J3 0.004
J4 0.004
J5 0.004
J6 0.004
J7 0.004
J8 0.004
J9 0.004
J10 0.004
J11 0.004
J12 0.004
J13 0.004
J14 0.004
J15 0.004
J16 0.004
J17 0.004
J18 0.004
J19 0.004
J20 0.004
J21 0.004
J22 0.004
J23 0.004
J24 0.004
J25 0.004
J26 0.004
J27 0.004
J28 0.004
J29 0.004
J30 0.004
J31 0.004
J32 0.004
J33 0.004
J34 0.004
J35 0.004
J36 0.004
J37 0.004
J38 0.004
J39 0.004
J40 0.004
J41 0.004
J42 0.004
J43 0.004
J44 0.004
J45 0.004
J46 0.004
J47 0.004
J48 0.004
J49 0.004


[OPTIONS]
UNITS CMH
HEADLOSS D-W
QUALITY NONE
VISCOSITY 1.0
DIFFUSIVITY 1.0
SPECIFIC GRAVITY 1.0
TRIALS 200
ACCURACY 0.001
UNBALANCED STOP
PATTERN 1.0
DEMAND MULTIPLIER 1.0
EMITTER EXPONENT 0.5
TOLERANCE 0.01
PRESSURE EXPONENT 0.5

 [REPORT]
PAGESIZE 0
STATUS NO
SUMMARY YES
ENERGY NO
NODES ALL
LINKS ALL
ELEVATION NO
DEMAND YES
HEAD YES
PRESSURE YES
QUALITY YES
LENGTH NO
DIAMETER NO
FLOW YES
VELOCITY YES
HEADLOSS YES
SETTING NO
REACTION NO
F-FACTOR NO
ELEVATION PRECISION 2
DEMAND PRECISION 2
HEAD PRECISION 2
PRESSURE PRECISION 2
QUALITY PRECISION 2
LENGTH PRECISION 2
DIAMETER PRECISION 2
FLOW PRECISION 2
VELOCITY PRECISION 2
HEADLOSS PRECISION 2
SETTING PRECISION 2
REACTION PRECISION 2
F-FACTOR PRECISION 2

 [TIMES]
DURATION 0:00
HYDRAULIC TIMESTEP 1:00
PATTERN START 0:00
REPORT TIMESTEP 1:00
REPORT START 0:00
START CLOCKTIME 00:00 am
STATISTIC NONE

 [CONTROLS]

 [CURVES]
;id xvalue yvalue
C1 0.0 60.0
C1 0.01 59.9999
C1 0.02 59.9996
C1 0.03 59.9991
C1 0.04 59.9984
C1 0.05 59.9975
C1 0.06 59.9964
C1 0.07 59.9951
C1 0.08 59.9936
C1 0.09 59.9919
C1 0.1 59.99
C1 0.11 59.9879
C1 0.12 59.9856
C1 0.13 59.9831
C1 0.14 59.9804
C1 0.15 59.9775
C1 0.16 59.9744
C1 0.17 59.9711
C1 0.18 59.9676
C1 0.19 59.9639
C1 0.2 59.96
C1 0.21 59.9559
C1 0.22 59.9516
C1 0.23 59.9471
C1 0.24 59.9424
C1 0.25 59.9375
C1 0.26 59.9324
C1 0.27 59.9271
C1 0.28 59.9216
C1 0.29 59.9159
C1 0.3 59.91
C1 0.31 59.9039
C1 0.32 59.8976
C1 0.33 59.8911
C1 0.34 59.8844
C1 0.35000000000000003 59.8775
C1 0.36 59.8704
C1 0.37 59.8631
C1 0.38 59.8556
C1 0.39 59.8479
C1 0.4 59.84
C1 0.41000000000000003 59.8319
C1 0.42 59.8236
C1 0.43 59.8151
C1 0.44 59.8064
C1 0.45 59.7975
C1 0.46 59.7884
C1 0.47000000000000003 59.7791
C1 0.48 59.7696
C1 0.49 59.7599
C1 0.5 59.75
C1 0.51 59.7399
C1 0.52 59.7296
C1 0.53 59.7191
C1 0.54 59.7084
C1 0.55 59.6975
C1 0.56 59.6864
C1 0.5700000000000001 59.6751
C1 0.58 59.6636
C1 0.59 59.6519
C1 0.6 59.64
C1 0.61 59.6279
C1 0.62 59.6156
C1 0.63 59.6031
C1 0.64 59.5904
C1 0.65 59.5775
C1 0.66 59.5644
C1 0.67 59.5511
C1 0.68 59.5376
C1 0.6900000000000001 59.5239
C1 0.7000000000000001 59.51
C1 0.71 59.4959
C1 0.72 59.4816
C1 0.73 59.4671
C1 0.74 59.4524
C1 0.75 59.4375
C1 0.76 59.4224
C1 0.77 59.4071
C1 0.78 59.3916
C1 0.79 59.3759
C1 0.8 59.36
C1 0.81 59.3439
C1 0.8200000000000001 59.3276
C1 0.8300000000000001 59.3111
C1 0.84 59.2944
C1 0.85 59.2775
C1 0.86 59.2604
C1 0.87 59.2431
C1 0.88 59.2256
C1 0.89 59.2079
C1 0.9 59.19
C1 0.91 59.1719
C1 0.92 59.1536
C1 0.93 59.1351
C1 0.9400000000000001 59.1164
C1 0.9500000000000001 59.0975
C1 0.96 59.0784
C1 0.97 59.0591
C1 0.98 59.0396
C1 0.99 59.0199
C1 1.0 59.0
C1 1.01 58.9799
C1 1.02 58.9596
C1 1.03 58.9391
C1 1.04 58.9184
C1 1.05 58.8975
C1 1.06 58.8764
C1 1.07 58.8551
C1 1.08 58.8336
C1 1.09 58.8119
C1 1.1 58.79
C1 1.11 58.7679
C1 1.12 58.7456
C1 1.1300000000000001 58.7231
C1 1.1400000000000001 58.7004
C1 1.1500000000000001 58.6775
C1 1.16 58.6544
C1 1.17 58.6311
C1 1.18 58.6076
C1 1.19 58.5839
C1 1.2 58.56
C1 1.21 58.5359
C1 1.22 58.5116
C1 1.23 58.4871
C1 1.24 58.4624
C1 1.25 58.4375
C1 1.26 58.4124
C1 1.27 58.3871
C1 1.28 58.3616
C1 1.29 58.3359
C1 1.3 58.31
C1 1.31 58.2839
C1 1.32 58.2576
C1 1.33 58.2311
C1 1.34 58.2044
C1 1.35 58.1775
C1 1.36 58.1504
C1 1.37 58.1231
C1 1.3800000000000001 58.0956
C1 1.3900000000000001 58.0679
C1 1.4000000000000001 58.04
C1 1.41 58.0119
C1 1.42 57.9836
C1 1.43 57.9551
C1 1.44 57.9264
C1 1.45 57.8975
C1 1.46 57.8684
C1 1.47 57.8391
C1 1.48 57.8096
C1 1.49 57.7799
C1 1.5 57.75
C1 1.51 57.7199
C1 1.52 57.6896
C1 1.53 57.6591
C1 1.54 57.6284
C1 1.55 57.5975
C1 1.56 57.5664
C1 1.57 57.5351
C1 1.58 57.5036
C1 1.59 57.4719
C1 1.6 57.44
C1 1.61 57.4079
C1 1.62 57.3756
C1 1.6300000000000001 57.3431
C1 1.6400000000000001 57.3104
C1 1.6500000000000001 57.277499999999996
C1 1.6600000000000001 57.2444
C1 1.67 57.2111
C1 1.68 57.1776
C1 1.69 57.1439
C1 1.7 57.11
C1 1.71 57.0759
C1 1.72 57.0416
C1 1.73 57.0071
C1 1.74 56.9724
C1 1.75 56.9375
C1 1.76 56.9024
C1 1.77 56.8671
C1 1.78 56.8316
C1 1.79 56.7959
C1 1.8 56.76
C1 1.81 56.7239
C1 1.82 56.6876
C1 1.83 56.6511
C1 1.84 56.6144
C1 1.85 56.5775
C1 1.86 56.5404
C1 1.87 56.503099999999996
C1 1.8800000000000001 56.4656
C1 1.8900000000000001 56.4279
C1 1.9000000000000001 56.39
C1 1.9100000000000001 56.3519
C1 1.92 56.3136
C1 1.93 56.2751
C1 1.94 56.2364
C1 1.95 56.1975
C1 1.96 56.1584
C1 1.97 56.1191
C1 1.98 56.0796
C1 1.99 56.0399
C1 2.0 56.0
C1 2.0100000000000002 55.9599
C1 2.02 55.9196
C1 2.0300000000000002 55.8791
C1 2.04 55.8384
C1 2.05 55.7975
C1 2.06 55.7564
C1 2.07 55.7151
C1 2.08 55.6736
C1 2.09 55.6319
C1 2.1 55.59
C1 2.11 55.5479
C1 2.12 55.5056
C1 2.13 55.4631
C1 2.14 55.4204
C1 2.15 55.3775
C1 2.16 55.3344
C1 2.17 55.2911
C1 2.18 55.2476
C1 2.19 55.2039
C1 2.2 55.16
C1 2.21 55.115899999999996
C1 2.22 55.0716
C1 2.23 55.0271
C1 2.24 54.9824
C1 2.25 54.9375
C1 2.2600000000000002 54.892399999999995
C1 2.27 54.8471
C1 2.2800000000000002 54.8016
C1 2.29 54.7559
C1 2.3000000000000003 54.71
C1 2.31 54.6639
C1 2.32 54.6176
C1 2.33 54.5711
C1 2.34 54.5244
C1 2.35 54.4775
C1 2.36 54.4304
C1 2.37 54.3831
C1 2.38 54.3356
C1 2.39 54.2879
C1 2.4 54.24
C1 2.41 54.1919
C1 2.42 54.1436
C1 2.43 54.0951
C1 2.44 54.0464
C1 2.45 53.9975
C1 2.46 53.9484
C1 2.47 53.8991
C1 2.48 53.8496
C1 2.49 53.7999
C1 2.5 53.75
C1 2.5100000000000002 53.6999
C1 2.52 53.6496
C1 2.5300000000000002 53.5991
C1 2.54 53.5484
C1 2.5500000000000003 53.4975
C1 2.56 53.4464
C1 2.57 53.3951
C1 2.58 53.3436
C1 2.59 53.2919
C1 2.6 53.24
C1 2.61 53.1879
C1 2.62 53.1356
C1 2.63 53.0831
C1 2.64 53.0304
C1 2.65 52.9775
C1 2.66 52.9244
C1 2.67 52.8711
C1 2.68 52.8176
C1 2.69 52.7639
C1 2.7 52.71
C1 2.71 52.6559
C1 2.72 52.6016
C1 2.73 52.5471
C1 2.74 52.492399999999996
C1 2.75 52.4375
C1 2.7600000000000002 52.3824
C1 2.77 52.3271
C1 2.7800000000000002 52.2716
C1 2.79 52.2159
C1 2.8000000000000003 52.16
C1 2.81 52.103899999999996
C1 2.82 52.0476
C1 2.83 51.9911
C1 2.84 51.9344
C1 2.85 51.8775
C1 2.86 51.8204
C1 2.87 51.7631
C1 2.88 51.705600000000004
C1 2.89 51.6479
C1 2.9 51.59
C1 2.91 51.5319
C1 2.92 51.473600000000005
C1 2.93 51.415099999999995
C1 2.94 51.3564
C1 2.95 51.2975
C1 2.96 51.2384
C1 2.97 51.1791
C1 2.98 51.1196
C1 2.99 51.0599
C1 3.0 51.0
C1 3.0100000000000002 50.939899999999994
C1 3.02 50.879599999999996
C1 3.0300000000000002 50.8191
C1 3.04 50.7584
C1 3.0500000000000003 50.6975
C1 3.06 50.6364
C1 3.0700000000000003 50.5751
C1 3.08 50.5136
C1 3.09 50.4519
C1 3.1 50.39
C1 3.11 50.3279
C1 3.12 50.2656
C1 3.13 50.2031
C1 3.14 50.1404
C1 3.15 50.0775
C1 3.16 50.014399999999995
C1 3.17 49.9511
C1 3.18 49.8876
C1 3.19 49.8239
C1 3.2 49.76
C1 3.21 49.6959
C1 3.22 49.6316
C1 3.23 49.567099999999996
C1 3.24 49.502399999999994
C1 3.25 49.4375
C1 3.2600000000000002 49.3724
C1 3.27 49.3071
C1 3.2800000000000002 49.2416
C1 3.29 49.1759
C1 3.3000000000000003 49.11
C1 3.31 49.0439
C1 3.3200000000000003 48.977599999999995
C1 3.33 48.9111
C1 3.34 48.8444
C1 3.35 48.7775
C1 3.36 48.7104
C1 3.37 48.6431
C1 3.38 48.5756
C1 3.39 48.5079
C1 3.4 48.44
C1 3.41 48.3719
C1 3.42 48.3036
C1 3.43 48.2351
C1 3.44 48.1664
C1 3.45 48.0975
C1 3.46 48.0284
C1 3.47 47.9591
C1 3.48 47.8896
C1 3.49 47.8199
C1 3.5 47.75
C1 3.5100000000000002 47.679899999999996
C1 3.52 47.6096
C1 3.5300000000000002 47.5391
C1 3.54 47.4684
C1 3.5500000000000003 47.397499999999994
C1 3.56 47.3264
C1 3.5700000000000003 47.2551
C1 3.58 47.1836
C1 3.59 47.1119
C1 3.6 47.04
C1 3.61 46.9679
C1 3.62 46.8956
C1 3.63 46.8231
C1 3.64 46.7504
C1 3.65 46.6775
C1 3.66 46.6044
C1 3.67 46.5311
C1 3.68 46.4576
C1 3.69 46.3839
C1 3.7 46.31
C1 3.71 46.2359
C1 3.72 46.1616
C1 3.73 46.0871
C1 3.74 46.0124
C1 3.75 45.9375
C1 3.7600000000000002 45.862399999999994
C1 3.77 45.7871
C1 3.7800000000000002 45.7116
C1 3.79 45.6359
C1 3.8000000000000003 45.56
C1 3.81 45.4839
C1 3.8200000000000003 45.4076
C1 3.83 45.3311
C1 3.84 45.254400000000004
C1 3.85 45.177499999999995
C1 3.86 45.1004
C1 3.87 45.0231
C1 3.88 44.9456
C1 3.89 44.8679
C1 3.9 44.79
C1 3.91 44.7119
C1 3.92 44.6336
C1 3.93 44.555099999999996
C1 3.94 44.4764
C1 3.95 44.3975
C1 3.96 44.3184
C1 3.97 44.2391
C1 3.98 44.1596
C1 3.99 44.079899999999995
C1 4.0 44.0
C1 4.01 43.9199
C1 4.0200000000000005 43.8396
C1 4.03 43.7591
C1 4.04 43.678399999999996
C1 4.05 43.5975
C1 4.0600000000000005 43.5164
C1 4.07 43.4351
C1 4.08 43.3536
C1 4.09 43.2719
C1 4.1 43.19
C1 4.11 43.1079
C1 4.12 43.0256
C1 4.13 42.9431
C1 4.14 42.8604
C1 4.15 42.777499999999996
C1 4.16 42.6944
C1 4.17 42.6111
C1 4.18 42.52760000000001
C1 4.19 42.4439
C1 4.2 42.36
C1 4.21 42.2759
C1 4.22 42.1916
C1 4.23 42.107099999999996
C1 4.24 42.0224
C1 4.25 41.9375
C1 4.26 41.8524
C1 4.2700000000000005 41.7671
C1 4.28 41.6816
C1 4.29 41.5959
C1 4.3 41.510000000000005
C1 4.3100000000000005 41.423899999999996
C1 4.32 41.337599999999995
C1 4.33 41.2511
C1 4.34 41.1644
C1 4.3500000000000005 41.0775
C1 4.36 40.990399999999994
C1 4.37 40.903099999999995
C1 4.38 40.8156
C1 4.39 40.727900000000005
C1 4.4 40.64
C1 4.41 40.5519
C1 4.42 40.4636
C1 4.43 40.3751
C1 4.44 40.2864
C1 4.45 40.1975
C1 4.46 40.1084
C1 4.47 40.0191
C1 4.48 39.92959999999999
C1 4.49 39.8399
C1 4.5 39.75
C1 4.51 39.6599
C1 4.5200000000000005 39.569599999999994
C1 4.53 39.4791
C1 4.54 39.388400000000004
C1 4.55 39.2975
C1 4.5600000000000005 39.206399999999995
C1 4.57 39.1151
C1 4.58 39.0236
C1 4.59 38.9319
C1 4.6000000000000005 38.839999999999996
C1 4.61 38.7479
C1 4.62 38.6556
C1 4.63 38.563100000000006
C1 4.64 38.4704
C1 4.65 38.3775
C1 4.66 38.2844
C1 4.67 38.191100000000006
C1 4.68 38.0976
C1 4.69 38.0039
C1 4.7 37.91
C1 4.71 37.8159
C1 4.72 37.7216
C1 4.73 37.6271
C1 4.74 37.532399999999996
C1 4.75 37.4375
C1 4.76 37.3424
C1 4.7700000000000005 37.247099999999996
C1 4.78 37.1516
C1 4.79 37.0559
C1 4.8 36.96
C1 4.8100000000000005 36.863899999999994
C1 4.82 36.7676
C1 4.83 36.671099999999996
C1 4.84 36.5744
C1 4.8500000000000005 36.47749999999999
C1 4.86 36.380399999999995
C1 4.87 36.2831
C1 4.88 36.1856
C1 4.89 36.087900000000005
C1 4.9 35.989999999999995
C1 4.91 35.8919
C1 4.92 35.7936
C1 4.93 35.695100000000004
C1 4.94 35.596399999999996
C1 4.95 35.4975
C1 4.96 35.398399999999995
C1 4.97 35.2991
C1 4.98 35.1996
C1 4.99 35.0999
C1 5.0 35.0
C1 5.01 34.8999
C1 5.0200000000000005 34.7996
C1 5.03 34.6991
C1 5.04 34.5984
C1 5.05 34.4975
C1 5.0600000000000005 34.3964
C1 5.07 34.2951
C1 5.08 34.1936
C1 5.09 34.0919
C1 5.1000000000000005 33.989999999999995
C1 5.11 33.8879
C1 5.12 33.7856
C1 5.13 33.683099999999996
C1 5.14 33.580400000000004
C1 5.15 33.47749999999999
C1 5.16 33.374399999999994
C1 5.17 33.271100000000004
C1 5.18 33.16760000000001
C1 5.19 33.0639
C1 5.2 32.959999999999994
C1 5.21 32.855900000000005
C1 5.22 32.7516
C1 5.23 32.647099999999995
C1 5.24 32.5424
C1 5.25 32.4375
C1 5.26 32.33240000000001
C1 5.2700000000000005 32.22709999999999
C1 5.28 32.1216
C1 5.29 32.0159
C1 5.3 31.91
C1 5.3100000000000005 31.803899999999995
C1 5.32 31.697599999999998
C1 5.33 31.5911
C1 5.34 31.4844
C1 5.3500000000000005 31.377499999999994
C1 5.36 31.270399999999995
C1 5.37 31.1631
C1 5.38 31.055600000000002
C1 5.39 30.947900000000004
C1 5.4 30.839999999999996
C1 5.41 30.7319
C1 5.42 30.6236
C1 5.43 30.515100000000004
C1 5.44 30.406399999999994
C1 5.45 30.2975
C1 5.46 30.1884
C1 5.47 30.079100000000004
C1 5.48 29.969599999999996
C1 5.49 29.859899999999996
C1 5.5 29.75
C1 5.51 29.6399
C1 5.5200000000000005 29.529599999999995
C1 5.53 29.419099999999997
C1 5.54 29.3084
C1 5.55 29.1975
C1 5.5600000000000005 29.086399999999994
C1 5.57 28.975099999999998
C1 5.58 28.863599999999998
C1 5.59 28.751900000000003
C1 5.6000000000000005 28.639999999999993
C1 5.61 28.527899999999995
C1 5.62 28.415599999999998
C1 5.63 28.3031
C1 5.64 28.190400000000004
C1 5.65 28.077499999999997
C1 5.66 27.964399999999998
C1 5.67 27.851100000000002
C1 5.68 27.7376
C1 5.69 27.6239
C1 5.7 27.509999999999998
C1 5.71 27.395899999999997
C1 5.72 27.281600000000005
C1 5.73 27.167099999999998
C1 5.74 27.0524
C1 5.75 26.9375
C1 5.76 26.822400000000002
C1 5.7700000000000005 26.707099999999997
C1 5.78 26.5916
C1 5.79 26.475900000000003
C1 5.8 26.36
C1 5.8100000000000005 26.243899999999996
C1 5.82 26.127599999999994
C1 5.83 26.0111
C1 5.84 25.894400000000005
C1 5.8500000000000005 25.777499999999996
C1 5.86 25.660399999999996
C1 5.87 25.543099999999995
C1 5.88 25.425600000000003
C1 5.89 25.307900000000004
C1 5.9 25.189999999999998
C1 5.91 25.0719
C1 5.92 24.9536
C1 5.93 24.835100000000004
C1 5.94 24.716399999999993
C1 5.95 24.597499999999997
C1 5.96 24.4784
C1 5.97 24.359100000000005
C1 5.98 24.239599999999996
C1 5.99 24.119899999999994

 [DEMANDS]
;id demand pattern category

 [ENERGY]

 [PATTERNS]
;id multipliers

 [RULES]

 [STATUS]
;id status/setting

 [MIXING]
;tankid mixingmodel compartmentvolume

 [QUALITY]
;id initialquality

 [REACTIONS]
ORDER BULK 1.0
ORDER WALL 1.0
ORDER TANK 1.0
GLOBAL BULK 0.0
GLOBAL WALL 0.0

 [SOURCES]
;id sourcetype strength sourcepattern

 [BACKDROP]

 [COORDINATES]
;nodeid xcoordinate ycoordinate
J1 -50.0 -50.0
J2 -50.0 -33.33
J3 -50.0 -16.66
J4 -50.0 0.0
J5 -50.0 16.66
J6 -50.0 33.33
J7 -50.0 50.0
J8 -33.33 -50.0
J9 -33.33 -33.33
J10 -33.33 -16.67
J11 -33.33 0.0
J12 -33.33 16.67
J13 -33.33 33.33
J14 -33.33 50.0
J15 -16.67 -50.0
J16 -16.67 -33.33
J17 -16.67 -16.67
J18 -16.67 0.0
J19 -16.67 16.67
J20 -16.67 33.33
J21 -16.67 50.0
J22 0.0 -50.0
J23 0.0 -33.33
J24 0.0 -16.67
J25 0.0 0.0
J26 0.0 16.67
J27 0.0 33.33
J28 0.0 50.0
J29 16.67 -50.0
J30 16.67 -33.33
J31 16.67 -16.67
J32 16.67 0.0
J33 16.67 16.67
J34 16.67 33.33
J35 16.67 50.0
J36 33.33 -50.0
J37 33.33 -33.33
J38 33.33 -16.67
J39 33.33 0.0
J40 33.33 16.67
J41 33.33 33.33
J42 33.33 50.0
J43 50.0 -50.0
J44 50.0 -33.33
J45 50.0 -16.67
J46 50.0 0.0
J47 50.0 16.67
J48 50.0 33.33
J49 50.0 50.0
R -70 -50

 [LABELS]
;xcoordinate ycoordinate label anchornode

 [TAGS]

 [VERTICES]
;linkkid xcoordinate ycoordinate

 